%mem=8gb
#N B3LYP/6-311G(d,p) OPT

Name 

0 1
N         -4.67025       -4.36656        0.51855
C         -3.27546       -4.37205        0.74677
C         -2.48531       -5.29280        0.04581
C         -1.09875       -5.32646        0.21862
C         -0.48497       -4.44693        1.10708
C         -1.25754       -3.53962        1.82620
C         -2.64290       -3.50542        1.64808
C         -6.63159       -1.02931        0.70620
C         -7.44205       -2.06612        1.10311
C         -6.82190       -3.31860        1.06749
N         -7.54352       -4.37087        1.45186
S         -9.03038       -3.66868        1.85864
N         -8.70476       -2.04007        1.52792
C         -5.50937       -3.29869        0.65740
S         -5.09979       -1.67424        0.22032
O         -6.95360        7.70661        1.27673
C         -6.20798        6.58804        1.13800
C         -6.96166        5.30663        1.13959
C         -8.29899        5.29548        1.59912
N         -9.39943        5.38191        1.95351
C         -6.28941        4.22078        0.71435
C         -6.81076        2.89036        0.64410
C         -8.08331        2.40270        0.40230
C         -8.15060        0.97567        0.41614
C         -6.92361        0.38392        0.63422
S         -5.71279        1.57793        0.84480
O         -4.99433        6.65265        1.00370
H         -5.07150       -5.28882        0.69028
H         -2.94589       -5.97470       -0.66476
H         -0.49856       -6.03420       -0.34683
H          0.59334       -4.46849        1.24012
H         -0.78596       -2.85652        2.52779
H         -3.22056       -2.80267        2.24171
H         -7.92448        7.62873        1.35667
H         -5.24195        4.33234        0.42503
H         -8.95241        3.02149        0.21268
H         -9.06626        0.41784        0.25524

