%mem=8gb
#N  TD(NStates=10) PBE1PBE/6-311G(d,p) 
 
Name
 
0 1
 6   -7.854865    6.024058   -0.403487
 8   -6.930098    5.445576    0.507285
 6   -6.551439    4.151509    0.314600
 6   -7.013084    3.328698   -0.716028
 6   -6.548922    2.017843   -0.819648
 6   -5.639310    1.501770    0.102244
 7   -5.195402    0.146676    0.004616
 6   -3.831426   -0.166409    0.016121
 6   -3.376849   -1.423317    0.463194
 6   -2.028745   -1.730473    0.469197
 6   -1.058040   -0.808007    0.035304
 6   -1.519446    0.446258   -0.403126
 6   -2.865936    0.763307   -0.416735
 1   -3.182701    1.731893   -0.780526
 1   -0.810972    1.178648   -0.774162
 6    0.355386   -1.156756    0.040233
16    1.598290    0.071945    0.059677
 6    2.889919   -1.128032    0.041858
 6    2.339225   -2.399356    0.041965
 6    0.933701   -2.413395    0.039446
 1    0.351646   -3.324188    0.004324
 1    2.952581   -3.286838    0.029235
 6    4.274635   -0.725308    0.027824
 6    4.663327    0.611667   -0.041976
 6    5.998093    1.048696   -0.058794
 6    7.081872    0.178411   -0.008897
 6    6.743828   -1.219490    0.067869
 6    5.365060   -1.673476    0.086099
 7    5.257420   -3.000011    0.162402
16    6.774991   -3.613123    0.206354
 7    7.627557   -2.214635    0.131885
 6    8.479634    0.528438   -0.026300
 6    9.115721    1.732156   -0.098297
 6    8.432816    2.976899   -0.214181
 7    7.859740    3.978005   -0.290750
 6   10.612934    1.843960   -0.167833
 8   11.170170    2.794364   -0.639908
 8   11.326407    0.795559    0.320491
 1   10.764773    0.217454    0.849414
 1    9.119864   -0.348824   -0.005237
 1    6.169390    2.114206   -0.118876
 1    3.896732    1.375424   -0.092792
 1   -1.717481   -2.694805    0.853227
 1   -4.091832   -2.151590    0.822929
 6   -6.182485   -0.880510   -0.109488
 6   -7.243138   -0.949132    0.792860
 6   -8.226109   -1.931155    0.674294
 6   -8.146178   -2.876241   -0.351647
 6   -7.080856   -2.813495   -1.259788
 6   -6.119176   -1.823881   -1.145719
 1   -5.306643   -1.776838   -1.861042
 1   -7.039224   -3.545811   -2.056842
 8   -9.042096   -3.882022   -0.555863
 6  -10.140418   -4.002717    0.337475
 1   -9.804647   -4.183713    1.364656
 1  -10.777211   -3.111220    0.314833
 1  -10.712574   -4.861240   -0.009852
 1   -9.036138   -1.951624    1.390748
 1   -7.307425   -0.223104    1.594546
 6   -5.191810    2.330782    1.141623
 6   -5.633098    3.639345    1.240941
 1   -5.292087    4.286042    2.040189
 1   -4.491923    1.941314    1.871452
 1   -6.906439    1.386992   -1.624756
 1   -7.721313    3.693910   -1.447422
 1   -8.009898    7.045443   -0.060366
 1   -7.455829    6.042205   -1.423759
 1   -8.812336    5.491153   -0.396740


