#N HF/6-31G OPT 

triphenylamine::thienopyrazine::2-cyano-2-phenylacrylic acid

0 1
C          0.76942        2.21422       -3.99629
C          0.85484        0.85052       -3.74546
C          1.37301        0.38832       -2.52719
C          1.88619        1.26714       -1.55186
N          2.53292        0.77016       -0.33854
C          2.13816        1.36346        0.92647
C          2.51702        2.66867        1.28013
C          2.10315        3.24216        2.48767
C          1.37184        2.49039        3.40268
C          1.02760        1.17629        3.09782
C          1.37661        0.63073        1.85736
C          3.37009       -0.43081       -0.34177
C          3.79007       -1.06571        0.83876
C          4.48495       -2.29478        0.83401
C          4.84025       -2.94672       -0.35187
C          4.53736       -2.25188       -1.53161
C          3.85132       -1.01822       -1.52219
C          1.72672        2.64091       -1.81602
C          1.17889        3.11004       -3.01867
C          6.99202       -6.87706        2.38892
C          6.45166       -5.66655        2.81933
N          5.91885       -4.71843        2.00800
C          5.97395       -5.07925        0.68957
C          5.50384       -4.28680       -0.34830
S          5.77349       -5.12446       -1.84345
C          6.50233       -6.50944       -1.12538
C          6.54034       -6.34335        0.24510
N          7.05948       -7.27947        1.09667
N         11.79942      -10.23253       -3.67637
C         10.86182      -10.71071       -4.15863
C          9.69211      -11.29802       -4.72014
C          8.43918      -10.86440       -4.46311
C          8.00106       -9.74940       -3.59899
C          8.58115       -9.45247       -2.36442
C          8.09774       -8.39381       -1.57873
C          6.99756       -7.61939       -1.97649
C          6.39622       -7.95118       -3.20022
C          6.89118       -8.99499       -3.99863
C          9.92366      -12.43366       -5.64386
O         11.00588      -12.92821       -5.91064
O          8.80588      -12.91887       -6.21669
H          0.37357        2.57787       -4.94065
H          0.51996        0.13977       -4.49666
H          1.37393       -0.68475       -2.35461
H          3.15303        3.25452        0.62382
H          2.36699        4.27161        2.71783
H          1.07854        2.92559        4.35451
H          0.48621        0.57400        3.82333
H          1.07809       -0.38968        1.62914
H          3.58615       -0.63672        1.81529
H          4.72346       -2.72153        1.80417
H          4.81834       -2.64320       -2.50617
H          3.70654       -0.53806       -2.48571
H          2.04421        3.39876       -1.11415
H          1.08930        4.18043       -3.18855
H          7.40280       -7.57940        3.10885
H          6.43720       -5.42313        3.87797
H          7.60213      -11.36002       -4.95726
H          9.41353      -10.03086       -1.97043
H          8.60624       -8.19031       -0.63813
H          5.52284       -7.41006       -3.55778
H          6.38879       -9.20693       -4.94076
H          9.13714      -13.64609       -6.78629
 
