%mem=8gb
#N  TD(NStates=10)CAM-B3lYP/6-311G(d,p) SCRF=(Solvent=Dichloromethane)
 
Name
 
0 1
 6     -7.546561    1.280310    2.683097
 6     -8.592842    0.800254    1.678459
 6     -7.982348    0.250768    0.559527
 6     -6.560027    0.312166    0.721275
16     -5.139569   -0.126570   -0.154442
 6     -4.110677    0.497597    1.154165
 6     -4.886064    1.009111    2.184047
 6     -6.267212    0.903068    1.938473
 1     -4.434723    1.436566    3.066072
 6     -2.664740    0.421969    1.036834
 6     -2.033004   -0.180668   -0.038723
 6     -0.630861   -0.259925   -0.188264
 6      0.271476    0.248550    0.727084
 6     -0.325305    0.886039    1.870252
 7      0.341718    1.432283    2.889414
16     -0.764611    2.009353    3.945696
 7     -2.137532    1.584801    3.156203
 6     -1.773595    0.971653    2.029089
 6      1.727905    0.129793    0.534743
 6      2.627700    1.127090    0.949407
 6      3.989468    1.015240    0.716343
 6      4.520458   -0.105162    0.056672
 6      3.630876   -1.111584   -0.353867
 6      2.271351   -0.992571   -0.114460
 1      1.618590   -1.799849   -0.426000
 1      4.012512   -1.990779   -0.857038
 7      5.905965   -0.218076   -0.183178
 6      6.541714   -1.490986   -0.162595
 6      7.452277   -1.849593   -1.164607
 6      8.080003   -3.087880   -1.142777
 6      7.814461   -4.022365   -0.129081
 6      6.902809   -3.649608    0.871239
 6      6.281857   -2.406948    0.863770
 1      5.595470   -2.138317    1.657746
 1      6.698462   -4.333679    1.687379
 6      8.431479   -5.372355   -0.123591
 6      7.655440   -6.504999    0.184186
 6      8.175336   -7.787662    0.179345
 6      9.520917   -7.991698   -0.146516
 6     10.322163   -6.890794   -0.449187
 6      9.781010   -5.603663   -0.436548
 8     10.630860   -4.567494   -0.772508
 6     11.174607   -3.854858    0.341958
 1     11.768846   -4.521873    0.977035
 1     11.818644   -3.079567   -0.072520
 1     10.385781   -3.390238    0.941552
 1     11.366991   -6.989955   -0.708897
 8      9.950727   -9.284025   -0.144623
 6     11.303899   -9.547345   -0.489284
 1     11.419341  -10.628514   -0.434744
 1     11.531966   -9.209206   -1.506079
 1     11.997205   -9.073730    0.214791
 1      7.557214   -8.648199    0.402949
 1      6.602998   -6.368378    0.405019
 1      8.776499   -3.344012   -1.929784
 1      7.660802   -1.152742   -1.967442
 6      6.684190    0.938764   -0.477466
 6      7.924033    1.137885    0.141914
 6      8.692136    2.255911   -0.153082
 6      8.251760    3.224345   -1.068286
 6      7.002848    3.017724   -1.673254
 6      6.234035    1.894297   -1.394612
 1      5.276141    1.759105   -1.882366
 1      6.622935    3.753594   -2.372990
 6      9.074355    4.404066   -1.438322
 6      9.741533    5.204812   -0.488005
 6     10.490422    6.320690   -0.879745
 6     10.589114    6.656541   -2.233187
 6      9.938791    5.878317   -3.191525
 6      9.200749    4.778553   -2.783035
 1      8.714408    4.166883   -3.534234
 1     10.032331    6.144342   -4.236502
 8     11.299441    7.720324   -2.704903
 6     11.985477    8.550716   -1.780708
 1     12.745332    7.991399   -1.222891
 1     12.473802    9.319260   -2.377619
 1     11.294191    9.027627   -1.076442
 1     10.986088    6.922385   -0.134488
 8      9.602716    4.840751    0.820595
 6     10.183472    5.647349    1.833286
 1     11.275635    5.680701    1.748293
 1      9.784755    6.667732    1.813423
 1      9.912805    5.176009    2.776807
 1      9.646101    2.386068    0.339831
 1      8.285881    0.405206    0.853395
 1      4.654626    1.802552    1.047713
 1      2.255914    1.998856    1.468874
 1     -0.252500   -0.727024   -1.089395
 1     -2.635999   -0.614377   -0.828430
16     -9.123789   -0.305543   -0.605419
 6    -10.469575    0.212829    0.424075
 6     -9.994005    0.777274    1.599899
 1    -10.653402    1.174492    2.359953
 6    -11.846087    0.026495    0.002967
 6    -12.911052    0.188287    0.914530
 6    -14.220700    0.019765    0.513571
 6    -14.553611   -0.327482   -0.814183
 6    -13.488229   -0.495374   -1.724850
 6    -12.178791   -0.320031   -1.325168
 1    -11.391855   -0.441040   -2.060468
 1    -13.683793   -0.758683   -2.755101
 6    -15.951965   -0.484358   -1.128773
 6    -16.598111   -0.801101   -2.284978
 6    -15.969472   -1.065192   -3.530449
 7    -15.544201   -1.294906   -4.583914
 6    -18.103574   -0.878389   -2.242749
 8    -18.738018   -0.672509   -1.243038
 8    -18.723307   -1.195286   -3.399137
 1    -18.087752   -1.332222   -4.115879
 1    -16.637229   -0.323158   -0.300363
 1    -15.018492    0.148074    1.237166
 1    -12.704703    0.430789    1.949174
 6     -7.637268    2.804247    2.911604
 1     -7.558605    3.347206    1.967676
 1     -8.589316    3.066421    3.381452
 1     -6.831512    3.140233    3.569513
 6     -7.660911    0.524229    4.024198
 1     -7.602613   -0.555306    3.871714
 1     -6.853024    0.819794    4.698782
 1     -8.611489    0.752222    4.514437

