%mem=8gb 
#N B3LYP/6-311G(d,p) OPT  

C61H46O6N4S3

0 1
O          1.86332       -0.93526        1.33935
C          2.88141       -1.00923        0.65501
C          3.78369       -2.22232        0.74635
C          3.48900       -3.41838        1.56932
C          4.35671       -4.25228        2.22368
C          5.77795       -3.97304        2.29202
N          6.92154       -3.73816        2.30816
C          3.83685       -5.51930        2.75681
S          4.53205       -6.38781        4.10582
C          2.80374       -6.29179        2.24867
C          2.56219       -7.51526        2.95449
C          3.43746       -7.74679        3.99887
C          3.49652       -8.93399        4.88396
C          4.31421       -9.13534        5.97758
C          4.18666      -10.44379        6.56573
C          3.19981      -11.26013        6.01583
C          2.74417      -12.63513        6.34500
C          2.80172      -13.23656        7.57773
C          3.32394      -12.33746        8.68646
N          3.75717      -11.59157        9.60625
C          2.35238      -14.61093        7.85252
O          2.46900      -15.02613        9.13516
O          1.90868      -15.34233        6.98097
S          2.50886      -10.36212        4.67166
C          4.77448       -2.26658       -0.14744
C          5.28660       -1.02126       -0.66441
C          6.65533       -0.91651       -0.77736
C          7.25465        0.27070       -1.18776
C          6.44367        1.36929       -1.56542
N          7.02466        2.54224       -2.06807
C          6.32797        3.80832       -1.81989
C          4.80841        3.72042       -1.77911
C          4.22684        2.36155       -2.21125
C          2.71058        2.39948       -1.95237
C          4.39768        2.21108       -3.75307
C          8.48628        2.67186       -2.09958
C          9.18607        1.34001       -2.28686
C          8.77617        0.34442       -1.19772
C          9.43606       -1.01431       -1.53621
C          9.26204        0.77596        0.20270
C          5.01506        1.24881       -1.49526
C          4.48108        0.07946       -0.89578
O          3.18266       -0.01837       -0.32996
H          2.41464       -3.61980        1.61028
H          2.23418       -5.99964        1.37245
H          1.77784       -8.20429        2.67092
H          5.01897       -8.39603        6.34237
H          4.83269      -10.73229        7.38506
H          2.32045      -13.20265        5.51607
H          2.83022      -14.41054        9.80190
H          5.33609       -3.16532       -0.37418
H          7.25533       -1.76056       -0.45150
H          6.62416        4.52623       -2.59635
H          6.67875        4.23319       -0.86958
H          4.39547        4.53221       -2.39624
H          4.48560        3.95064       -0.75477
H          2.25011        3.24794       -2.47806
H          2.48193        2.51695       -0.88905
H          2.21568        1.49418       -2.31910
H          3.87947        3.01725       -4.28880
H          3.98465        1.25961       -4.10610
H          5.44218        2.24600       -4.08115
H          8.83935        3.16633       -1.18715
H          8.76455        3.32807       -2.93339
H         10.27236        1.48966       -2.27936
H          8.92774        0.93678       -3.27623
H          9.00392       -1.44940       -2.44549
H          9.31353       -1.74658       -0.72883
H         10.51383       -0.90497       -1.68975
H          8.85112        1.74275        0.51270
H         10.35452        0.84969        0.23316
H          8.95843        0.05225        0.97000

