%mem=8gb
#N BHandHLYP/6-311G(d,p) TD(NStates=10)

Name 

0 1
C1 1.583874 -0.556693 -0.16471
C2 2.616567 -1.501336 -0.011816
C3 3.942989 -1.10998 0.076132
C4 1.955555 0.799337 -0.216835
C5 3.278111 1.195779 -0.112784
C6 4.302513 0.246165 0.0318
N7 5.653743 0.64486 0.12987
C8 6.55567 -0.066752 0.971486
C9 7.83806 -0.397737 0.515342
C10 8.722623 -1.080689 1.344026
C11 8.340848 -1.457342 2.630424
C12 7.063338 -1.134339 3.084793
C13 6.178212 -0.43714 2.268997
C14 6.131217 1.76139 -0.614412
C15 6.956415 2.716346 -0.006713
C16 7.433142 3.798766 -0.739167
C17 7.084546 3.955554 -2.079443
C18 6.258475 3.01007 -2.684947
C19 5.790828 1.91572 -1.964668
C20 0.185482 -0.96234 -0.25654
C21 -0.356566 -2.192127 -0.564926
O22 0.390562 -3.304695 -0.846805
C23 -0.356626 -4.32716 -1.518002
C24 -1.682531 -4.548965 -0.817823
O25 -2.477808 -3.353448 -0.866145
C26 -1.780564 -2.218376 -0.571879
C27 -2.372844 -1.004615 -0.273638
S28 -1.109661 0.179762 0.039166
C29 -3.775522 -0.647382 -0.180919
C30 -4.799792 -1.544768 -0.555334
C31 -6.128149 -1.179214 -0.455261
C32 -6.523026 0.09068 0.016352
C33 -7.936061 0.366375 0.079998
C34 -8.636656 1.464719 0.478523
C35 -8.065263 2.673643 0.956033
N36 -7.689718 3.694698 1.356037
C37 -10.140658 1.395407 0.408212
O38 -10.813696 2.496137 0.806598
O39 -10.731511 0.422698 0.021469
C40 -5.497845 0.988283 0.387471
C41 -4.170822 0.625996 0.290747
H42 2.374338 -2.553585 0.028009
H43 4.71425 -1.8622 0.18404
H44 1.195538 1.562581 -0.341151
H45 3.52614 2.248973 -0.147733
H46 8.135862 -0.114688 -0.486946
H47 9.711776 -1.329472 0.975962
H48 9.030505 -1.99406 3.271253
H49 6.756134 -1.413 4.086683
H50 5.191399 -0.176549 2.631921
H51 7.221172 2.603789 1.037568
H52 8.070273 4.52997 -0.254258
H53 7.452466 4.803421 -2.645213
H54 5.986196 3.115491 -3.729222
H55 5.160487 1.175801 -2.442754
H56 0.25986 -5.225547 -1.485974
H57 -0.52078 -4.037932 -2.562391
H58 -1.518767 -4.833477 0.22726
H59 -2.269554 -5.321118 -1.314991
H60 -4.541252 -2.524766 -0.926188
H61 -6.894159 -1.888091 -0.751406
H62 -8.583563 -0.443108 -0.247632
H63 -10.20914 3.196646 1.089759
H64 -5.739114 1.975266 0.757291
H65 -3.417278 1.343373 0.594055

