%mem=8gb 
#N TD(NStates=3) LC-wPBE/6-311+G(2d,p)

AP25

0 1
C                     0.        0.        0. 
C                     1.1855    0.9582    0.10501 
C                     0.74195   2.26935   0.25512 
C                    -0.68804   2.28628   0.2644 
S                    -1.97378   3.43447   0.40219 
C                    -3.17623   2.1473    0.24225 
C                    -4.60081   2.45473   0.27475 
C                    -5.10444   3.71323  -0.09795 
C                    -6.46058   3.99165  -0.07338 
C                    -7.39101   3.01698   0.33204 
N                    -8.76539   3.29459   0.36484 
C                    -9.23807   4.62642   0.57248 
C                    -10.19156   5.18316  -0.2791 
H                    -10.56258   4.60187  -1.11475 
C                    -10.68303   6.47098  -0.06624 
C                    -10.20437   7.23088   1.00369 
C                    -9.24167   6.67876   1.85936 
C                    -8.77411   5.3922    1.65284 
H                    -8.04039   4.97051   2.32944 
H                    -8.88815   7.276     2.69101 
O                    -10.60567   8.49872   1.30095 
C                    -11.5796   9.1134    0.46911 
H                    -11.22267   9.21247  -0.56218 
H                    -12.52305   8.55596   0.47523 
H                    -11.7454   10.10434   0.88822 
H                    -11.42615   6.86782  -0.74454 
C                    -9.7279    2.25744   0.17208 
C                    -9.64426   1.39173  -0.91867 
C                    -10.58462   0.37933  -1.1083 
C                    -11.64524   0.23708  -0.20987 
C                    -11.74243   1.11314   0.87903 
C                    -10.79311   2.10259   1.07116 
H                    -10.87315   2.76998   1.92084 
H                    -12.5684   0.98835   1.56861 
O                    -12.62409  -0.70693  -0.30251 
C                    -12.58309  -1.62068  -1.38927 
H                    -12.66032  -1.10391  -2.35252 
H                    -11.6684  -2.22408  -1.37316 
H                    -13.4454  -2.27287  -1.26188 
H                    -10.48576  -0.27531  -1.96363 
H                    -8.83223   1.50437  -1.62722 
C                    -6.89455   1.75458   0.71042 
C                    -5.53749   1.48628   0.68141 
H                    -5.1912    0.51612   1.0186 
H                    -7.58324   0.99075   1.04764 
H                    -6.81096   4.96709  -0.38465 
H                    -4.42376   4.48158  -0.44802 
C                    -2.56286   0.91239   0.10826 
C                    -1.15709   0.99005   0.12185 
H                    -3.12934   0.00087  -0.02803 

