%mem=8gb 
#N B3LYP/6-311G(d,p) OPT  

C34H24O4N4S2

0 1
C 0.00000000 0.00000000 0.00000000
O -0.37752900 1.12079800 -0.77728400
C -1.69734200 1.50840200 -0.77590900
C -2.69208500 0.88977700 -0.11129400
C -3.95872700 1.33027700 -0.15252700
C -4.31780500 2.42182100 -0.85462500
N -5.64255200 2.85071600 -0.86127500
C -5.94471100 4.21218900 -0.89273300
C -7.04863500 4.71314100 -1.48045400
C -7.32375600 6.02730200 -1.49581000
C -6.50615000 6.94786900 -0.94650800
C -5.40216200 6.44612700 -0.35514500
C -5.14250400 5.12937500 -0.31916800
H -4.23113600 4.80964500 0.21460800
H -4.66281600 7.09463400 0.14655700
C -6.78590400 8.27080300 -0.98951200
S -5.91681600 9.34468500 -0.48640400
C -6.67000700 10.5693000 -0.81425100
C -7.82631700 10.1734600 -1.37218400
C -7.89243700 8.84354000 -1.48349000
H -8.76078400 8.33913900 -1.93867000
H -8.64842600 10.7912800 -1.76084000
C -6.20547600 11.8295000 -0.60771800
C -4.95169000 12.0535300 -0.15588000
C -4.42626900 13.2768200 0.01747800
C -5.11183400 14.4034100 -0.23891100
C -6.37784900 14.1985000 -0.66712000
C -6.90561100 12.9618700 -0.84376400
N -8.11227300 12.9674200 -1.23150600
S -8.69409000 14.5861800 -1.60146900
N -7.15988400 15.1522900 -0.96255600
C -4.62064400 15.6573800 -0.09789900
C -3.40902800 16.1266800 0.26578500
C -2.36018700 15.3907300 0.58421400
N -1.44182200 14.7361100 0.85319400
C -3.19620100 17.4773200 0.30573200
O -2.09285900 17.8538900 0.64495300
O -4.12368000 18.4199200 -0.00068700
H -4.96032400 18.0051400 -0.25873900
H -5.34652600 16.4449200 -0.32895300
H -3.38852600 13.3013500 0.37624900
H -4.26157200 11.2264100 0.08214600
H -8.25089300 6.31163000 -2.01873000
H -7.76060300 4.04534900 -1.99516000
C -6.64022000 1.89469700 -1.03522200
C -6.48374900 0.82631000 -1.84172100
C -7.44736900 -0.09358400 -2.00771200
C -8.62648200 -0.01762800 -1.36127500
C -8.77796400 1.04978800 -0.55500900
C -7.81932700 1.97428200 -0.39140000
H -8.01134800 2.80829200 0.30538900
H -9.72765300 1.16626500 -0.00334100
O -9.66109400 -0.91575100 -1.48114000
C -9.54819400 -1.96170500 -2.42844300
H -9.44338500 -1.53915000 -3.45602600
H -8.69900300 -2.63672300 -2.16734500
H -10.4899700 -2.55807500 -2.39003800
H -7.23565200 -0.92310900 -2.70166600
H -5.54688400 0.69522100 -2.41124500
C -3.32596700 3.04354100 -1.52100400
C -2.06110900 2.59699400 -1.47980900
H -1.28698300 3.14381200 -2.04646900
H -3.54090300 3.93591800 -2.13364200
H -4.71680500 0.78053200 0.43258000
H -2.49412800 -0.00533900 0.49994500
H 1.09908400 -0.14457700 -0.12333400
H -0.20570000 0.19288700 1.07986100
H -0.51632700 -0.91943600 -0.36552000



