%mem=8gb 
#N B3LYP/6-311G(d,p) OPT  

C61H46O6N4S3

0 1
C          0.00673       -1.65428       -2.41988
C         -0.06431       -0.71486       -1.25553
C          0.83933       -0.54859       -0.19914
C          2.04339       -1.26039        0.16806
C          2.04278       -2.29846        1.04396
C          0.67661       -2.76936        1.51537
N         -0.45674       -3.16002        1.90645
C          3.27269       -2.97961        1.46053
O          3.11193       -4.01822        2.30632
O          4.38448       -2.63434        1.07182
S          0.36017        0.82927        0.75728
C         -1.00018        1.17870       -0.21780
C         -1.77701        2.41609       -0.09112
C         -2.21637        2.98731        1.11703
C         -2.98037        4.18419        1.17674
C         -3.37786        4.94705        0.04673
C         -4.19083        6.17685        0.14210
C         -4.03714        7.08370        1.21498
C         -4.82895        8.23939        1.34043
C         -5.78737        8.51490        0.38279
N         -6.71382        9.59197        0.30589
C         -6.98177       10.61910        1.21690
C         -7.38446       11.89733        0.80595
C         -7.68438       12.91062        1.72679
C         -7.56630       12.68334        3.09852
C         -7.87346       13.75991        4.09370
C         -7.17157       11.41827        3.53075
C         -6.90209       10.40445        2.60313
C         -7.14098        9.60255       -1.12276
C         -6.93514        8.16166       -1.64328
C         -8.28212        7.48471       -1.44725
C         -9.27374        8.56631       -1.82247
C         -8.62879        9.87979       -1.37949
C         -5.89920        7.65597       -0.70859
C         -5.15479        6.49322       -0.82863
C         -2.94569        4.41112       -1.20699
N         -3.16473        4.93471       -2.42948
S         -2.50542        3.91574       -3.54350
N         -1.86506        2.76922       -2.54838
C         -2.14904        3.12226       -1.27854
C         -1.17795        0.18308       -1.15066
H          1.02899       -1.75696       -2.78819
H         -0.59257       -1.25362       -3.25141
H         -0.40638       -2.63274       -2.16334
H          2.97661       -0.88955       -0.25035
H          2.21386       -4.25596        2.60318
H         -1.98688        2.48700        2.05860
H         -3.29466        4.51910        2.16710
H         -3.27923        6.90629        1.97688
H         -4.64982        8.91040        2.17276
H         -7.47476       12.13515       -0.24956
H         -8.01421       13.87827        1.35521
H         -8.08893       14.71095        3.59882
H         -7.01691       13.91570        4.75759
H         -8.74695       13.48092        4.69157
H         -7.08187       11.19992        4.59265
H         -6.66271        9.41747        2.98871
H         -6.50361       10.31289       -1.67048
H         -6.61441        8.16472       -2.68927
H         -8.44340        7.18202       -0.40458
H         -8.38879        6.58626       -2.06570
H        -10.24608        8.41168       -1.34720
H         -9.43022        8.57343       -2.90762
H         -9.15784       10.28808       -0.51396
H         -8.73046       10.61083       -2.19176
H         -5.34044        5.84860       -1.68190
H         -2.00804        0.18765       -1.85096

