%mem=8gb 
#N B3LYP/6-311G(d,p) OPT  

C41H28O4N2S4

0 1
C 0.00000000 0.00000000 0.00000000
C 1.07990100 1.03944600 -0.17019100
C 0.65839200 2.29034600 -0.36543800
C -0.67846400 2.28392500 -0.35638200
S -1.79428700 3.21150300 -0.49419600
C -2.90620500 2.24663700 -0.28885500
C -4.21770900 2.58810300 -0.28919900
C -4.66152500 3.84574400 -0.50099800
C -5.96523700 4.16839900 -0.48729400
C -6.93184000 3.25943600 -0.25664800
N -8.28922200 3.57323600 -0.22509600
C -8.71232400 4.84993500 0.13566400
C -9.74821400 5.46923200 -0.46576900
H -10.2927600 4.97416500 -1.28787400
C -10.1533200 6.69553900 -0.10266100
C -9.52665600 7.39547600 0.85960200
C -8.53812400 6.75307900 1.50713000
C -8.13173500 5.52633700 1.14584700
H -7.31522000 5.06159000 1.72456000
H -8.04694300 7.25135500 2.36060000
O -9.97618400 8.62501400 1.26740400
C -9.45315900 9.70263600 0.51412200
H -8.34071200 9.72057500 0.60047500
H -9.75947900 9.60897100 -0.55512300
H -9.86635800 10.6504700 0.93187200
H -11.0193600 7.14877400 -0.61565200
C -9.22600500 2.64674700 -0.67536900
C -9.00623600 1.83541700 -1.72897400
C -9.92155000 0.94713200 -2.14500400
C -11.0939600 0.78292100 -1.50652200
C -11.3420600 1.63505600 -0.49602300
C -10.4284500 2.52508000 -0.08022300
H -10.6877700 3.16316300 0.78201500
H -12.3201500 1.58670400 0.01378900
O -12.0483200 -0.09126000 -1.96000500
C -11.9468500 -1.38397700 -1.39137300
H -10.9661700 -1.84235400 -1.66309600
H -12.0516200 -1.32424400 -0.28155900
H -12.7693100 -2.01345100 -1.80550700
H -9.70368700 0.32795400 -3.03233600
H -8.06298500 1.90740000 -2.29703600
C -6.49335500 2.00439700 -0.04667600
C -5.19091700 1.68110200 -0.06904600
H -4.96897000 0.62026000 0.12486700
H -7.21528400 1.19862800 0.17238100
H -6.23344800 5.21970700 -0.68910000
H -3.96984100 4.68094900 -0.70379700
C -2.42047900 1.00065600 -0.10030400
C -1.08954200 1.03349300 -0.14499400
H -2.96718600 0.06134700 0.07558700
S 1.76177500 3.23209800 -0.51554700
C 2.87275100 2.26701700 -0.34002100
C 2.41142900 1.01150100 -0.15899000
H 2.99117800 0.08680100 -0.00228500
C 4.17551100 2.62144700 -0.35114100
S 5.28172000 1.66391900 -0.17966600
C 6.48844600 2.52340000 -0.23758700
C 6.07548000 3.78676900 -0.43419800
C 4.74326300 3.82353900 -0.49696300
C 4.39043000 5.10064200 -0.68523100
C 5.55505600 5.77729700 -0.72497900
S 6.68620600 5.00132800 -0.58172100
C 5.55817900 7.13016000 -0.89786300
O 4.49789600 7.71101400 -1.00294400
O 6.72589100 7.85720300 -0.93506000
C 6.61349500 9.26264300 -1.03172400
H 6.10475500 9.54249500 -1.98430500
H 6.06015600 9.66389400 -0.14951200
H 7.64318400 9.69093800 -1.03392800
H 3.36973200 5.50481200 -0.77989500
C 7.69873700 1.93265300 -0.10374100
C 8.96200100 2.40680700 -0.09903900
C 9.32109900 3.67166800 -0.21979900
N 9.65127400 4.77886800 -0.31811800
C 10.0124700 1.54070300 0.04377300
O 9.90725000 0.19439900 0.18216400
H 8.97611600 -0.07085700 0.18741800
O 11.1258600 2.02472900 0.03872000
H 7.64532700 0.83960900 0.02858300
C -0.01560900 -1.01967500 -1.14058000
H -0.04396300 -0.51924100 -2.13602700
H 0.89288200 -1.66293100 -1.10773700
H -0.90845800 -1.68149000 -1.06702300
C 0.02119000 -0.64592900 1.38685000
H 0.03917200 0.12080400 2.19559100
H -0.87901800 -1.28365000 1.54081700
H 0.92172700 -1.29017600 1.50721900



