%mem=8gb 
#N B3LYP/6-311G(d,p) OPT  

C34H24O4N4S2

0 1
C 0.00000000 0.00000000 0.00000000
O 1.37178800 -0.30552200 0.18689900
C 1.77041700 -1.60401100 -0.03093000
C 1.04549200 -2.51813000 -0.70045500
C 1.46171200 -3.78057000 -0.86111100
C 2.63437300 -4.22406800 -0.36360500
N 3.03683400 -5.54430800 -0.54975400
C 4.29042000 -5.88367100 -1.09040200
C 4.57394900 -7.16401100 -1.39733400
C 5.70368000 -7.54769300 -2.00063500
C 6.70183300 -6.69226400 -2.28488700
C 6.47996400 -5.42390200 -1.88568200
C 5.30581700 -5.03195300 -1.34994900
H 5.20771200 -3.95155300 -1.15292100
H 7.23803400 -4.64241700 -2.07696800
C 7.79128800 -7.11827900 -2.96655400
S 9.06848700 -6.41929300 -3.22212400
C 9.76072100 -7.38182800 -4.11050600
C 8.92698400 -8.40473200 -4.35681300
C 7.80188900 -8.26776300 -3.66044900
H 7.02342200 -9.04156600 -3.73447000
H 9.09497500 -9.31221300 -4.96163600
C 11.0245200 -7.38132400 -4.59854800
S 12.1685800 -6.49850600 -4.28781600
C 13.2562600 -7.16566900 -5.03688400
C 12.7025100 -8.10255800 -5.82123900
C 11.4174200 -8.26936500 -5.52341800
H 10.8358100 -9.06984100 -6.01069900
H 13.1938200 -8.78768600 -6.53112100
C 14.6029700 -7.02187200 -4.97943900
C 15.4247900 -7.71913200 -5.77645600
C 16.6923700 -7.53876300 -5.42417700
C 16.8013900 -6.73619900 -4.35225300
S 15.4491000 -6.17349900 -4.11422200
C 17.9622100 -6.44168400 -3.70700700
C 18.0880800 -5.41697500 -2.83581800
C 19.2526600 -5.08381000 -2.24763200
C 20.4086600 -5.73881700 -2.47485400
C 20.2819700 -6.81400300 -3.28303100
C 19.1082900 -7.14164000 -3.87335400
N 19.1732700 -8.20001700 -4.56768700
S 20.7996800 -8.85665200 -4.69357400
N 21.2556800 -7.57167400 -3.58533800
C 21.6233500 -5.40910000 -1.97121700
C 22.0340000 -4.36561000 -1.22022400
C 21.2819400 -3.37695500 -0.78609800
N 20.6276300 -2.49263300 -0.41412400
C 23.3573700 -4.26108000 -0.89143600
O 24.3255400 -5.14076900 -1.23320900
H 25.1432000 -4.75144200 -0.88190400
O 23.7371400 -3.30822400 -0.24890800
H 22.4415800 -6.09760300 -2.24546500
H 19.2183600 -4.22414600 -1.56666200
H 17.2186400 -4.77411400 -2.60941300
H 17.4725000 -8.07554400 -5.98719900
H 15.1701500 -8.42055000 -6.58380500
H 5.77583800 -8.62682500 -2.21523100
H 3.86242000 -7.97626600 -1.18448500
C 1.99973500 -6.46970400 -0.66075500
C 1.23914700 -6.76781600 0.41038600
C 0.26751700 -7.69414000 0.35295600
C -0.00416700 -8.38363000 -0.77313400
C 0.70729800 -8.02146700 -1.85642000
C 1.67020000 -7.09093000 -1.81085300
H 2.21086300 -6.84420300 -2.74112500
H 0.50047400 -8.51638800 -2.81983500
O -0.97403700 -9.35235000 -0.90563400
C -1.94086300 -9.49730700 0.11837400
H -1.46615200 -9.82874200 1.06904900
H -2.50539500 -8.54233200 0.24555500
H -2.65592100 -10.2902900 -0.20808600
H -0.28997300 -7.89849000 1.28230100
H 1.43394400 -6.26134900 1.37298500
C 3.33512600 -3.32962800 0.36027200
C 2.91458700 -2.06284300 0.51180900
H 3.52126900 -1.37084400 1.11839200
H 4.26891000 -3.63379800 0.86622700
H 0.80100400 -4.44951800 -1.43822800
H 0.07521300 -2.25753700 -1.14971700
H -0.18002500 1.03286900 0.38146800
H -0.26473500 -0.02747600 -1.08345900
H -0.63250000 -0.70329500 0.59297700



