%mem=8gb
#N  TD(NStates=10)CAM-B3lYP/aug-cc-pVDZ SCRF=(Solvent=TetraHydroFuran)
 
Name
 
0 1
 6     0.937367   -3.073447   -0.186672
 6     2.122867   -2.115248   -0.081661
 6     1.679316   -0.804099    0.068452
 6     0.249325   -0.787165    0.077728
16    -1.036410    0.361025    0.215518
 6    -2.238860   -0.926149    0.055578
 6    -3.663445   -0.618716    0.088081
 6    -4.167072    0.639785   -0.284618
 6    -5.523215    0.918205   -0.260048
 6    -6.453643   -0.056471    0.145370
 7    -7.828021    0.221147    0.178165
 6    -8.300703    1.552970    0.385806
 6    -9.254197    2.109715   -0.465769
 1    -9.625209    1.528423   -1.301420
 6    -9.745666    3.397532   -0.252908
 6    -9.267005    4.157431    0.817016
 6    -8.304305    3.605310    1.672687
 6    -7.836741    2.318757    1.466163
 1    -7.103023    1.897060    2.142771
 1    -7.950783    4.202556    2.504337
 8    -9.668305    5.425275    1.114274
 6   -10.642233    6.039950    0.282435
 1   -10.285306    6.139026   -0.748855
 1   -11.585682    5.482513    0.288556
 1   -10.808033    7.030888    0.701547
 1   -10.488787    3.794368   -0.931210
 6    -8.790537   -0.816003   -0.014590
 6    -8.706892   -1.681719   -1.105345
 6    -9.647255   -2.694117   -1.294967
 6   -10.707870   -2.836370   -0.396541
 6   -10.805065   -1.960304    0.692355
 6    -9.855745   -0.970857    0.884487
 1    -9.935782   -0.303465    1.734163
 1   -11.631034   -2.085101    1.381938
 8   -11.686719   -3.780380   -0.489179
 6   -11.645727   -4.694126   -1.575939
 1   -11.722954   -4.177359   -2.539191
 1   -10.731032   -5.297522   -1.559834
 1   -12.508032   -5.346312   -1.448547
 1    -9.548391   -3.348753   -2.150306
 1    -7.894861   -1.569078   -1.813892
 6    -5.957184   -1.318867    0.523743
 6    -4.600126   -1.587169    0.494737
 1    -4.253834   -2.557328    0.831925
 1    -6.645870   -2.082701    0.860973
 1    -5.873589    1.893646   -0.571326
 1    -3.486389    1.408137   -0.634689
 6    -1.625489   -2.161053   -0.078410
 6    -0.219718   -2.083396   -0.064821
 1    -2.191968   -3.072577   -0.214700
16     2.977646    0.322058    0.184968
 6     4.162184   -0.988087    0.012416
 6     3.516210   -2.217730   -0.113955
 1     4.064580   -3.142153   -0.244654
 6     5.567054   -0.737299    0.045138
16     6.680862   -2.036515    0.376555
 6     8.117241   -1.007346    0.249715
 6     7.699721    0.298072   -0.013178
 6     6.283611    0.455188   -0.144695
 6     5.918293    1.776862   -0.543528
 6     7.002029    2.580666   -0.716207
16     8.542754    1.781825   -0.380001
 6     6.929485    3.995445   -1.127359
 8     5.900200    4.586493   -1.352715
 8     8.156994    4.542399   -1.221469
 6     8.202058    5.929065   -1.604344
 1     7.756993    6.064628   -2.591080
 1     7.661788    6.539691   -0.879736
 1     9.257040    6.190991   -1.617581
 1     4.914608    2.135918   -0.716605
 6     9.376140   -1.653440    0.354095
 6    10.622163   -1.158916    0.653764
 6    10.831709    0.144243    1.177590
 7    10.995247    1.193976    1.635252
 6    11.834467   -2.036742    0.645164
 8    11.763023   -3.147544   -0.146859
 1    11.061204   -3.044195   -0.799445
 8    12.816952   -1.818928    1.296115
 1     9.331350   -2.730405    0.206037
 6     0.917271   -3.800420   -1.548251
 1     0.924169   -3.086302   -2.374015
 1     1.789433   -4.452223   -1.648799
 1     0.021019   -4.420217   -1.637464
 6     0.930182   -4.093261    0.972236
 1     0.947217   -3.587426    1.939546
 1     0.033600   -4.717316    0.926403
 1     1.802170   -4.750158    0.911574

