%mem=8gb
#N TD(NStates=10) CAM-B3lYP/6-311G(d,p)
 
Name
 
0 1
 6         9.572500   -2.625230    0.622714
 6         8.239196   -1.991206    0.350223
 6         8.066035   -0.662939   -0.006048
 6         9.037824    0.329136   -0.178257
 6         9.868849    1.200972   -0.330786
 6        10.832902    2.223419   -0.509322
 6        12.201950    1.967704   -0.302263
 6        13.138535    2.976377   -0.470222
 6        12.744022    4.265838   -0.849649
 6        13.707576    5.391186   -1.067154
 8        14.936269    5.262229   -0.496154
 8        13.444192    6.372847   -1.707431
 6        11.385741    4.515923   -1.081711
 6        10.442067    3.519119   -0.906263
16         6.367486   -0.285381   -0.247341
 6         5.892851   -1.931697    0.136652
 6         4.491240   -2.321388    0.119400
 6         4.045086   -3.656567    0.426643
 7         4.826441   -4.685318    0.757553
16         3.855372   -5.979721    1.008542
 7         2.404868   -5.284678    0.707382
 6         2.628103   -4.007303    0.397647
 6         3.477946   -1.431110   -0.195564
 6         2.110145   -1.768213   -0.221970
 6         1.618507   -3.032369    0.062827
 6         0.200274   -3.344310    0.024624
16        -0.978552   -2.124581   -0.437665
 6        -0.451555   -4.524327    0.308653
 6        -1.866186   -4.474899    0.179422
 6        -2.739275   -5.660670    0.497717
 6        -2.317711   -3.230734   -0.215118
 6        -3.689063   -2.757154   -0.457375
 6        -4.589015   -3.540927   -1.209351
 6        -5.867652   -3.088000   -1.501455
 6        -4.105764   -1.510631    0.031617
 6        -5.403856   -1.047611   -0.203123
 6        -6.253955   -1.838216   -1.020255
 7        -7.435109   -1.157498   -1.249887
 6        -8.634127   -1.833175   -1.718003
 6        -7.360400    0.089678   -0.632982
 6        -6.156296    0.155140    0.118542
 6        -5.987749    1.267289    0.981336
 6        -6.883402    2.369861    0.964180
 6        -6.497472    3.242595    2.059568
 6        -7.033648    4.384988    2.672851
 6        -6.401217    4.940793    3.778761
 6        -5.235774    4.370533    4.304751
 6        -4.704060    3.211801    3.751516
 6        -5.351325    2.651750    2.649384
 7        -5.061991    1.459295    1.999834
 6        -4.207686    0.450846    2.605945
 6        -7.921813    2.358980    0.002547
 6        -8.220281    1.205743   -0.771821
 6        -9.312962    1.571147   -1.661645
 6        -9.632895    2.919542   -1.357383
 7        -8.779443    3.386228   -0.367765
 6        -8.567981    4.810508   -0.161228
 6       -10.628968    3.627450   -2.029638
 6       -11.314396    2.982705   -3.052244
 6       -10.991458    1.666990   -3.402555
 6        -9.999776    0.966209   -2.724938
 6         7.009795   -2.689606    0.425960
 1        10.381571   -1.899431    0.536912
 1         9.767996   -3.438633   -0.082877
 1         9.601650   -3.053173    1.629290
 1        12.518966    0.972137   -0.018074
 1        14.187707    2.731158   -0.337395
 1        14.943136    4.517058    0.115055
 1        11.092449    5.508422   -1.400004
 1         9.392654    3.724733   -1.076925
 1         3.734918   -0.406575   -0.439178
 1         1.413764   -0.979800   -0.482094
 1         0.082118   -5.408663    0.622755
 1        -2.326673   -6.219817    1.341206
 1        -2.803366   -6.353436   -0.348561
 1        -3.754757   -5.356365    0.754493
 1        -4.256931   -4.487894   -1.614906
 1        -6.527019   -3.678286   -2.126191
 1        -3.397248   -0.916793    0.588840
 1        -8.669310   -1.903308   -2.809266
 1        -9.514439   -1.304965   -1.361471
 1        -8.656745   -2.845031   -1.306219
 1        -7.951805    4.829499    2.318867
 1        -6.822509    5.824297    4.244431
 1        -4.749911    4.826352    5.159705
 1        -3.811723    2.761687    4.168884
 1        -4.598775   -0.540911    2.394537
 1        -4.210287    0.588970    3.688162
 1        -3.174548    0.515860    2.251874
 1        -7.549779    4.985612    0.174886
 1        -9.266547    5.229593    0.569169
 1        -8.706522    5.332766   -1.110468
 1       -10.866518    4.650342   -1.763883
 1       -12.096272    3.508388   -3.588056
 1       -11.516694    1.186325   -4.219928
 1        -9.760401   -0.033771   -3.050741
 1         6.935361   -3.733875    0.688510

