%mem=8gb 
#N TD(NStates=3) PBE1PBE/6-311+G(2d,p)

AP25

0 1
6 -2.111431 -2.133771 0.023175
6 -1.670737 -0.821033 -0.060884
6 -0.246316 -0.806529 -0.072685
16 1.034142 0.327286 -0.152746
6 2.221594 -0.949307 -0.068059
6 3.639326 -0.638556 -0.089617
6 4.130532 0.615460 0.289003
6 5.479671 0.902451 0.270097
6 6.412694 -0.060457 -0.135318
7 7.775288 0.225218 -0.164637
6 8.234060 1.552109 -0.355012
6 9.213608 2.086974 0.470548
1 9.617813 1.483335 1.275806
6 9.693753 3.375721 0.273400
6 9.177086 4.157600 -0.754104
6 8.189047 3.627594 -1.584414
6 7.732590 2.340390 -1.393460
1 6.973577 1.933638 -2.052765
1 7.802114 4.242277 -2.389237
8 9.566105 5.425627 -1.028154
6 10.560380 5.996937 -0.210304
1 10.234361 6.056936 0.833954
1 11.497758 5.432353 -0.265675
1 10.725135 7.003108 -0.592412
1 10.461344 3.757660 0.934147
6 8.737726 -0.797903 0.017662
6 8.634370 -1.702724 1.066111
6 9.580034 -2.704606 1.245458
6 10.664648 -2.796584 0.379308
6 10.781728 -1.881804 -0.667020
6 9.827621 -0.902581 -0.848927
1 9.924488 -0.198704 -1.668231
1 11.629417 -1.965353 -1.337623
8 11.645961 -3.726263 0.469356
6 11.565932 -4.663866 1.517069
1 11.599678 -4.174212 2.496640
1 10.654797 -5.268270 1.445282
1 12.434594 -5.311687 1.410602
1 9.465420 -3.393793 2.072314
1 7.797759 -1.629174 1.752442
6 5.928821 -1.319235 -0.518193
6 4.578387 -1.595174 -0.494802
1 4.239631 -2.567621 -0.835767
1 6.625365 -2.077991 -0.854579
1 5.823873 1.880312 0.584886
1 3.442218 1.378628 0.639390
6 1.613963 -2.187121 0.004579
6 0.214580 -2.105944 0.002407
1 2.182226 -3.105237 0.087151
16 -2.959401 0.295002 -0.118602
6 -4.133288 -0.999765 -0.017740
6 -3.498901 -2.234402 0.047523
1 -4.053585 -3.162605 0.125460
6 -5.532098 -0.742626 -0.035956
16 -6.645828 -2.025818 -0.308821
6 -8.063006 -1.007522 -0.201613
6 -7.645746 0.301276 0.027267
6 -6.235789 0.455664 0.135496
6 -5.863511 1.781605 0.486051
6 -6.945639 2.582927 0.647692
16 -8.471493 1.781237 0.357800
6 -6.875550 4.003760 1.015437
8 -5.847475 4.600067 1.213186
8 -8.093262 4.548480 1.104265
6 -8.117650 5.933049 1.446065
1 -7.657563 6.090935 2.422414
1 -7.579300 6.517182 0.698666
1 -9.168670 6.211534 1.466386
1 -4.858667 2.151807 0.635587
6 -9.317063 -1.652127 -0.278796
6 -10.558272 -1.154225 -0.567215
6 -10.752319 0.143028 -1.104227
7 -10.888750 1.187229 -1.576010
6 -11.776035 -2.006864 -0.527431
8 -11.719361 -3.096342 0.273786
1 -10.980795 -3.019462 0.886608
8 -12.760753 -1.777396 -1.166965
1 -9.271495 -2.729078 -0.120888
6 -0.914409 -3.881596 1.388262
1 -0.918220 -3.210895 2.249763
1 -1.787209 -4.536550 1.456371
1 -0.018850 -4.506249 1.442439
6 -0.933889 -4.042991 -1.126136
1 -0.952238 -3.487979 -2.066155
1 -0.038305 -4.669849 -1.113942
1 -1.806716 -4.700740 -1.096423

