#N B3LYP/6-311G(d,p) OPT 

1ed::11b::1ea

0 1
C          1.37357       -0.25931        0.12343
C          0.44654       -1.30947        0.05748
C         -0.92869       -1.06717       -0.01968
C          0.87309        1.04847        0.10702
C         -0.50758        1.29279        0.01001
C         -1.43700        0.23928       -0.05861
N         -2.86151        0.48378       -0.16479
C         -3.69870       -0.41219       -0.94622
C         -5.02431       -0.69573       -0.56311
C         -5.84272       -1.53156       -1.32852
C         -5.33925       -2.14078       -2.47281
C         -4.02406       -1.90232       -2.86041
C         -3.21968       -1.03234       -2.11641
C         -3.46347        1.58979        0.55595
C         -4.55655        2.29786        0.02075
C         -5.19055        3.31176        0.74384
C         -4.71584        3.67036        2.00149
C         -3.61171        3.01317        2.53742
C         -2.99958        1.97528        1.82745
C          2.81693       -0.56311        0.19740
C          3.51468       -1.61520       -0.36286
O          2.93587       -2.52305       -1.19072
C          3.73599       -3.70709       -1.29485
C          5.22077       -3.38430       -1.46846
O          5.74927       -2.61773       -0.37662
C          4.88532       -1.63964        0.00214
C          5.27050       -0.55719        0.77330
S          3.89064        0.41051        1.13672
C          6.62638       -0.16180        1.21485
C          7.71662       -0.39075        0.35630
C          9.03057       -0.09801        0.73654
C          9.30175        0.44178        1.99446
C         10.70251        0.67308        2.39697
C         11.39112        1.81463        2.19100
C         10.68025        3.00268        1.56363
N         10.09052        3.98827        1.04318
C         12.80313        1.93626        2.60049
O         13.38543        3.13456        2.34580
O         13.42144        1.03134        3.13081
C          8.22367        0.72947        2.84262
C          6.90059        0.42681        2.45741
H          0.77906       -2.34476        0.07040
H         -1.59975       -1.92239       -0.04469
H          1.54463        1.90265        0.15191
H         -0.84755        2.32556       -0.02464
H         -5.43887       -0.26708        0.34646
H         -6.87092       -1.70663       -1.02366
H         -5.97077       -2.80110       -3.06136
H         -3.62190       -2.38570       -3.74702
H         -2.20838       -0.84105       -2.46770
H         -4.93485        2.05488       -0.96979
H         -6.05612        3.81592        0.32209
H         -5.20634        4.46034        2.56382
H         -3.23198        3.29602        3.51571
H         -2.16571        1.45416        2.29151
H          3.37596       -4.27329       -2.16056
H          3.56325       -4.31394       -0.39818
H          5.39458       -2.82051       -2.39263
H          5.79549       -4.31449       -1.52551
H          7.54735       -0.81576       -0.63206
H          9.83336       -0.31592        0.03565
H         11.18453       -0.18852        2.85963
H         12.86273        3.83986        1.91707
H          8.39310        1.17447        3.82074
H          6.09380        0.64241        3.15669
 
